/*--------------------------------*- C++ -*----------------------------------*\
| =========                 |                                                 |
| \\      /  F ield         | OpenFOAM: The Open Source CFD Toolbox           |
|  \\    /   O peration     | Version:  v2012                                 |
|   \\  /    A nd           | Website:  www.openfoam.com                      |
|    \\/     M anipulation  |                                                 |
\*---------------------------------------------------------------------------*/
FoamFile
{
    version     2.0;
    format      ascii;
    class       dictionary;
    object      blockMeshDict;
}
// * * * * * * * * * * * * * * * * * * * * * * * * * * * * * * * * * * * * * //

scale   1;

x0   0.0;
x1   1.0;
y0   0.0;
y1   1.0;
z0   0.0;
z1   1.0;

n_x  10;
n_y  10;
n_z  10;

/*

       7-----6
      /     /
     /     /
    4-----5

       3-----2
      /     /
     /     /
    0-----1


    z   y
    | /    
    |/     
    +-----x
   
*/

vertices
(
    ($x0 $y0 $z0)
    ($x1 $y0 $z0) 
    ($x1 $y1 $z0)
    ($x0 $y1 $z0)
    ($x0 $y0 $z1)
    ($x1 $y0 $z1) 
    ($x1 $y1 $z1)
    ($x0 $y1 $z1)
);

blocks
(
      hex (0 1 2 3 4 5 6 7) ($n_x $n_y $n_z) simpleGrading (1 1 1)
);

boundary
(
    wall_bottom
    {
        type patch;
        faces
        (
            (0 1 2 3)
        );
    }
    wall_top
    {
        type patch;
        faces
        (
            (4 5 6 7)
        );
    }

    wall_left
    {
        type patch;
        faces
        (
            (0 3 7 4)
        );
    }
    wall_right
    {
        type patch;
        faces
        (
            (1 2 6 5)
        );
    }

    wall_back
    {
        type patch;
        faces
        (
            (0 1 5 4)
        );
    }
    wall_front
    {
        type patch;
        faces
        (
            (3 2 6 7)
        );
    }
    
);

// ************************************************************************* //
